LTspice 24.1.10 for Windows
Circuit: C:\Users\WBowl\Documents\Work\client_projects\rmit_pre_charger\simulation\spice\active_charger.net
Start Time: Mon Apr 13 18:12:04 2026
Options: method=gear  abstol=1n  reltol=0.01  vntol=1m  trtol=7
solver = Normal
Maximum thread count: 12
tnom = 27
temp = 27
method = Gear
abstol = 1e-09
reltol = 0.01
trtol = 7
volttol = 0.001
Direct Newton iteration for .op point succeeded.
Changing Tseed to 1e-08
Changing Tseed to 1e-10
Total elapsed time: 2.159 seconds.

Files loaded:
C:\Users\WBowl\Documents\Work\client_projects\rmit_pre_charger\simulation\spice\active_charger.net
C:\Users\WBowl\AppData\Local\LTspice\lib\cmp\standard.dio
C:\Users\WBowl\Documents\Work\client_projects\rmit_pre_charger\simulation\spice\components\driver\UCC27517_TRANS.LIB
C:\Users\WBowl\Documents\Work\client_projects\rmit_pre_charger\simulation\spice\components\fet\E3M0160120K.lib
C:\Users\WBowl\AppData\Local\LTspice\lib\sub\LTC.lib

